/*--------------------------------*- C++ -*----------------------------------*\
  =========                 |
  \\      /  F ield         | OpenFOAM: The Open Source CFD Toolbox
   \\    /   O peration     | Website:  https://openfoam.org
    \\  /    A nd           | Version:  7
     \\/     M anipulation  |
\*---------------------------------------------------------------------------*/
FoamFile
{
    version     2.0;
    format      ascii;
    class       dictionary;
    object      setFieldsDict;
}
// * * * * * * * * * * * * * * * * * * * * * * * * * * * * * * * * * * * * * //



defaultFieldValues
(
    volScalarFieldValue k 1e-9

);

regions
(
    // Set patch values (using ==)
    //up is y right is x
    boxToCell
    {
        box (0 0 -1) ( 4 3 1);

        fieldValues
        (
            volScalarFieldValue k 1e-10
        );
    }
        boxToCell
    {
        box (0 3 -1) ( 6 6 1);

        fieldValues
        (
            volScalarFieldValue k 5e-9
        );
    }
      boxToCell
    {
        box (1 0 -1) ( 7 1 1);

        fieldValues
        (
            volScalarFieldValue k 2e-9
        );
    }  
      boxToCell
    {
        box (5 2 -1) ( 9 5 1);

        fieldValues
        (
            volScalarFieldValue k 5e-10
        );
    }  
    
);


// ************************************************************************* //
