/*--------------------------------*- C++ -*----------------------------------*\
  =========                 |
  \\      /  F ield         | OpenFOAM: The Open Source CFD Toolbox
   \\    /   O peration     | Website:  https://openfoam.org
    \\  /    A nd           | Version:  8
     \\/     M anipulation  |
\*---------------------------------------------------------------------------*/
FoamFile
{
    version     2.0;
    format      ascii;
    class       polyBoundaryMesh;
    location    "constant/polyMesh";
    object      boundary;
}
// * * * * * * * * * * * * * * * * * * * * * * * * * * * * * * * * * * * * * //

3
(
    inlet
    {
        type            patch;
        nFaces          60;
        startFace       7080;
    }
    outlet
    {
        type            patch;
        nFaces          60;
        startFace       7140;
    }
    frontAndback
    {
        type            empty;
        inGroups        List<word> 1(empty);
        nFaces          7320;
        startFace       7200;
    }
)

// ************************************************************************* //
